NOVO24/1726531/Reguladores.dss
! REGULADORES — gerados de UNREMT
! vreg = 122 V e band = 2 V — AJUSTES TIPICOS, nao de campo.
! kVA = 5000 adotado; a BDGD nao traz a potencia do regulador.
! O ptratio segue a tensao de cada alimentador (TP para 120 V).
New Transformer.REG_351766807_1 phases=1 windings=2 XHL=0.04
~ buses=[segm_351766856.1 segm_351766795.1] conns=[wye wye]
~ kVs=[7.9674 7.9674] kVAs=[5000 5000] %Rs=[0.01 0.01]
~ maxtap=1.10 mintap=0.90 numtaps=32
New RegControl.RC_REG_351766807_1 transformer=REG_351766807_1 winding=2 vreg=122 band=2 ptratio=66.4 delay=15 maxtapchange=1
New Transformer.REG_351766807_2 phases=1 windings=2 XHL=0.04
~ buses=[segm_351766856.2 segm_351766795.2] conns=[wye wye]
~ kVs=[7.9674 7.9674] kVAs=[5000 5000] %Rs=[0.01 0.01]
~ maxtap=1.10 mintap=0.90 numtaps=32
New RegControl.RC_REG_351766807_2 transformer=REG_351766807_2 winding=2 vreg=122 band=2 ptratio=66.4 delay=15 maxtapchange=1
New Transformer.REG_351766807_3 phases=1 windings=2 XHL=0.04
~ buses=[segm_351766856.3 segm_351766795.3] conns=[wye wye]
~ kVs=[7.9674 7.9674] kVAs=[5000 5000] %Rs=[0.01 0.01]
~ maxtap=1.10 mintap=0.90 numtaps=32
New RegControl.RC_REG_351766807_3 transformer=REG_351766807_3 winding=2 vreg=122 band=2 ptratio=66.4 delay=15 maxtapchange=1
New Transformer.REG_351766881_1 phases=1 windings=2 XHL=0.04
~ buses=[segm_351766930.1 segm_351766869.1] conns=[wye wye]
~ kVs=[7.9674 7.9674] kVAs=[5000 5000] %Rs=[0.01 0.01]
~ maxtap=1.10 mintap=0.90 numtaps=32
New RegControl.RC_REG_351766881_1 transformer=REG_351766881_1 winding=2 vreg=122 band=2 ptratio=66.4 delay=15 maxtapchange=1
New Transformer.REG_351766881_2 phases=1 windings=2 XHL=0.04
~ buses=[segm_351766930.2 segm_351766869.2] conns=[wye wye]
~ kVs=[7.9674 7.9674] kVAs=[5000 5000] %Rs=[0.01 0.01]
~ maxtap=1.10 mintap=0.90 numtaps=32
New RegControl.RC_REG_351766881_2 transformer=REG_351766881_2 winding=2 vreg=122 band=2 ptratio=66.4 delay=15 maxtapchange=1
New Transformer.REG_351766881_3 phases=1 windings=2 XHL=0.04
~ buses=[segm_351766930.3 segm_351766869.3] conns=[wye wye]
~ kVs=[7.9674 7.9674] kVAs=[5000 5000] %Rs=[0.01 0.01]
~ maxtap=1.10 mintap=0.90 numtaps=32
New RegControl.RC_REG_351766881_3 transformer=REG_351766881_3 winding=2 vreg=122 band=2 ptratio=66.4 delay=15 maxtapchange=1
New Transformer.REG_351766955_1 phases=1 windings=2 XHL=0.04
~ buses=[segm_351767004.1 segm_351766943.1] conns=[wye wye]
~ kVs=[7.9674 7.9674] kVAs=[5000 5000] %Rs=[0.01 0.01]
~ maxtap=1.10 mintap=0.90 numtaps=32
New RegControl.RC_REG_351766955_1 transformer=REG_351766955_1 winding=2 vreg=122 band=2 ptratio=66.4 delay=15 maxtapchange=1
New Transformer.REG_351766955_2 phases=1 windings=2 XHL=0.04
~ buses=[segm_351767004.2 segm_351766943.2] conns=[wye wye]
~ kVs=[7.9674 7.9674] kVAs=[5000 5000] %Rs=[0.01 0.01]
~ maxtap=1.10 mintap=0.90 numtaps=32
New RegControl.RC_REG_351766955_2 transformer=REG_351766955_2 winding=2 vreg=122 band=2 ptratio=66.4 delay=15 maxtapchange=1
New Transformer.REG_351766955_3 phases=1 windings=2 XHL=0.04
~ buses=[segm_351767004.3 segm_351766943.3] conns=[wye wye]
~ kVs=[7.9674 7.9674] kVAs=[5000 5000] %Rs=[0.01 0.01]
~ maxtap=1.10 mintap=0.90 numtaps=32
New RegControl.RC_REG_351766955_3 transformer=REG_351766955_3 winding=2 vreg=122 band=2 ptratio=66.4 delay=15 maxtapchange=1
New Transformer.REG_351767029_1 phases=1 windings=2 XHL=0.04
~ buses=[segm_351767078.1 segm_351767017.1] conns=[wye wye]
~ kVs=[7.9674 7.9674] kVAs=[5000 5000] %Rs=[0.01 0.01]
~ maxtap=1.10 mintap=0.90 numtaps=32
New RegControl.RC_REG_351767029_1 transformer=REG_351767029_1 winding=2 vreg=122 band=2 ptratio=66.4 delay=15 maxtapchange=1
New Transformer.REG_351767029_2 phases=1 windings=2 XHL=0.04
~ buses=[segm_351767078.2 segm_351767017.2] conns=[wye wye]
~ kVs=[7.9674 7.9674] kVAs=[5000 5000] %Rs=[0.01 0.01]
~ maxtap=1.10 mintap=0.90 numtaps=32
New RegControl.RC_REG_351767029_2 transformer=REG_351767029_2 winding=2 vreg=122 band=2 ptratio=66.4 delay=15 maxtapchange=1
New Transformer.REG_351767029_3 phases=1 windings=2 XHL=0.04
~ buses=[segm_351767078.3 segm_351767017.3] conns=[wye wye]
~ kVs=[7.9674 7.9674] kVAs=[5000 5000] %Rs=[0.01 0.01]
~ maxtap=1.10 mintap=0.90 numtaps=32
New RegControl.RC_REG_351767029_3 transformer=REG_351767029_3 winding=2 vreg=122 band=2 ptratio=66.4 delay=15 maxtapchange=1
New Transformer.REG_351767103_1 phases=1 windings=2 XHL=0.04
~ buses=[segm_351767152.1 segm_351767091.1] conns=[wye wye]
~ kVs=[7.9674 7.9674] kVAs=[5000 5000] %Rs=[0.01 0.01]
~ maxtap=1.10 mintap=0.90 numtaps=32
New RegControl.RC_REG_351767103_1 transformer=REG_351767103_1 winding=2 vreg=122 band=2 ptratio=66.4 delay=15 maxtapchange=1
New Transformer.REG_351767103_2 phases=1 windings=2 XHL=0.04
~ buses=[segm_351767152.2 segm_351767091.2] conns=[wye wye]
~ kVs=[7.9674 7.9674] kVAs=[5000 5000] %Rs=[0.01 0.01]
~ maxtap=1.10 mintap=0.90 numtaps=32
New RegControl.RC_REG_351767103_2 transformer=REG_351767103_2 winding=2 vreg=122 band=2 ptratio=66.4 delay=15 maxtapchange=1
New Transformer.REG_351767103_3 phases=1 windings=2 XHL=0.04
~ buses=[segm_351767152.3 segm_351767091.3] conns=[wye wye]
~ kVs=[7.9674 7.9674] kVAs=[5000 5000] %Rs=[0.01 0.01]
~ maxtap=1.10 mintap=0.90 numtaps=32
New RegControl.RC_REG_351767103_3 transformer=REG_351767103_3 winding=2 vreg=122 band=2 ptratio=66.4 delay=15 maxtapchange=1
New Transformer.REG_351767177_1 phases=1 windings=2 XHL=0.04
~ buses=[segm_351767226.1 segm_351767165.1] conns=[wye wye]
~ kVs=[7.9674 7.9674] kVAs=[5000 5000] %Rs=[0.01 0.01]
~ maxtap=1.10 mintap=0.90 numtaps=32
New RegControl.RC_REG_351767177_1 transformer=REG_351767177_1 winding=2 vreg=122 band=2 ptratio=66.4 delay=15 maxtapchange=1
New Transformer.REG_351767177_2 phases=1 windings=2 XHL=0.04
~ buses=[segm_351767226.2 segm_351767165.2] conns=[wye wye]
~ kVs=[7.9674 7.9674] kVAs=[5000 5000] %Rs=[0.01 0.01]
~ maxtap=1.10 mintap=0.90 numtaps=32
New RegControl.RC_REG_351767177_2 transformer=REG_351767177_2 winding=2 vreg=122 band=2 ptratio=66.4 delay=15 maxtapchange=1
New Transformer.REG_351767177_3 phases=1 windings=2 XHL=0.04
~ buses=[segm_351767226.3 segm_351767165.3] conns=[wye wye]
~ kVs=[7.9674 7.9674] kVAs=[5000 5000] %Rs=[0.01 0.01]
~ maxtap=1.10 mintap=0.90 numtaps=32
New RegControl.RC_REG_351767177_3 transformer=REG_351767177_3 winding=2 vreg=122 band=2 ptratio=66.4 delay=15 maxtapchange=1
New Transformer.REG_1694443488_1 phases=1 windings=2 XHL=0.04
~ buses=[segm_1694443459.1 segm_1694443427.1] conns=[wye wye]
~ kVs=[7.9674 7.9674] kVAs=[5000 5000] %Rs=[0.01 0.01]
~ maxtap=1.10 mintap=0.90 numtaps=32
New RegControl.RC_REG_1694443488_1 transformer=REG_1694443488_1 winding=2 vreg=122 band=2 ptratio=66.4 delay=15 maxtapchange=1
New Transformer.REG_1694443488_2 phases=1 windings=2 XHL=0.04
~ buses=[segm_1694443459.2 segm_1694443427.2] conns=[wye wye]
~ kVs=[7.9674 7.9674] kVAs=[5000 5000] %Rs=[0.01 0.01]
~ maxtap=1.10 mintap=0.90 numtaps=32
New RegControl.RC_REG_1694443488_2 transformer=REG_1694443488_2 winding=2 vreg=122 band=2 ptratio=66.4 delay=15 maxtapchange=1
New Transformer.REG_1694443488_3 phases=1 windings=2 XHL=0.04
~ buses=[segm_1694443459.3 segm_1694443427.3] conns=[wye wye]
~ kVs=[7.9674 7.9674] kVAs=[5000 5000] %Rs=[0.01 0.01]
~ maxtap=1.10 mintap=0.90 numtaps=32
New RegControl.RC_REG_1694443488_3 transformer=REG_1694443488_3 winding=2 vreg=122 band=2 ptratio=66.4 delay=15 maxtapchange=1
